
Circuit: circuito t1

Doing analysis at TEMP = 27.000000 and TNOM = 27.000000


No. of Data Rows : 1
********************************************
Operating point
********************************************
op_TAB
@gb[i] = -2.54636e-04
@id[current] = 1.012814e-03
@r1[i] = 2.427540e-04
@r2[i] = -2.54636e-04
@r3[i] = -1.18817e-05
@r4[i] = 1.233308e-03
@r5[i] = -1.26745e-03
@r6[i] = 9.905539e-04
@r7[i] = 9.905539e-04
v(1) = 5.170385e+00
v(2) = 4.919669e+00
v(3) = 4.390981e+00
v(4) = 4.955840e+00
v(5) = 8.823660e+00
v(6) = -2.03701e+00
v(7) = -2.03701e+00
v(8) = -3.04368e+00
hc#branch = 2.225986e-05
va#branch = -2.42754e-04
vx#branch = 9.905539e-04
op_END
ngspice-31 done
